<?xml version="1.0" encoding="UTF-8"?>

<!-- generated on Mon Aug 18 23:54:15 2014 by SUMO netconvert Version 0.21.0
<?xml version="1.0" encoding="UTF-8"?>

<configuration xmlns:xsi="http://www.w3.org/2001/XMLSchema-instance" xsi:noNamespaceSchemaLocation="http://sumo-sim.org/xsd/netconvertConfiguration.xsd">

    <input>
        <node-files value="cross.nod.xml"/>
        <edge-files value="cross.edg.xml"/>
        <connection-files value="cross.con.xml"/>
    </input>

    <output>
        <output-file value="cross.net.xml"/>
    </output>

    <report>
        <verbose value="true"/>
    </report>

</configuration>
-->

<net version="0.13" xmlns:xsi="http://www.w3.org/2001/XMLSchema-instance" xsi:noNamespaceSchemaLocation="http://sumo-sim.org/xsd/net_file.xsd">

    <location netOffset="510.00,510.00" convBoundary="0.00,0.00,1020.00,1020.00" origBoundary="-510.00,-510.00,510.00,510.00" projParameter="!"/>

    <edge id=":0_0" function="internal">
        <lane id=":0_0_0" index="0" speed="15.28" length="6.42" shape="505.05,518.05 504.86,516.69 504.28,515.73 503.31,515.14 501.95,514.95"/>
        <lane id=":0_0_1" index="1" speed="15.28" length="6.42" shape="505.05,518.05 504.86,515.25 504.28,513.25 503.31,512.05 501.95,511.65"/>
    </edge>
    <edge id=":0_2" function="internal">
        <lane id=":0_2_0" index="0" speed="15.28" length="16.10" shape="505.05,518.05 505.05,513.27 505.05,510.00 505.05,506.73 505.05,501.95"/>
        <lane id=":0_2_1" index="1" speed="15.28" length="16.10" shape="508.35,518.05 508.35,513.27 508.35,510.00 508.35,506.73 508.35,501.95"/>
    </edge>
    <edge id=":0_4" function="internal">
        <lane id=":0_4_0" index="0" speed="15.28" length="3.12" shape="508.35,518.05 508.68,514.95"/>
        <lane id=":0_4_1" index="1" speed="15.28" length="3.12" shape="508.35,518.05 508.79,514.95"/>
    </edge>
    <edge id=":0_24" function="internal">
        <lane id=":0_24_0" index="0" speed="15.28" length="15.26" shape="508.68,514.95 508.96,512.36 510.78,508.30 513.81,505.86 518.05,505.05"/>
    </edge>
    <edge id=":0_25" function="internal">
        <lane id=":0_25_0" index="0" speed="15.28" length="12.51" shape="508.79,514.95 508.96,513.81 510.78,510.77 513.81,508.96 518.05,508.35"/>
    </edge>
    <edge id=":0_6" function="internal">
        <lane id=":0_6_0" index="0" speed="15.28" length="6.42" shape="518.05,514.95 516.69,515.14 515.73,515.73 515.14,516.69 514.95,518.05"/>
        <lane id=":0_6_1" index="1" speed="15.28" length="6.42" shape="518.05,514.95 515.25,515.14 513.25,515.73 512.05,516.69 511.65,518.05"/>
    </edge>
    <edge id=":0_8" function="internal">
        <lane id=":0_8_0" index="0" speed="15.28" length="16.10" shape="518.05,514.95 513.27,514.95 510.00,514.95 506.73,514.95 501.95,514.95"/>
        <lane id=":0_8_1" index="1" speed="15.28" length="16.10" shape="518.05,511.65 513.27,511.65 510.00,511.65 506.73,511.65 501.95,511.65"/>
    </edge>
    <edge id=":0_10" function="internal">
        <lane id=":0_10_0" index="0" speed="15.28" length="3.12" shape="518.05,511.65 514.95,511.32"/>
        <lane id=":0_10_1" index="1" speed="15.28" length="3.12" shape="518.05,511.65 514.95,511.21"/>
    </edge>
    <edge id=":0_26" function="internal">
        <lane id=":0_26_0" index="0" speed="15.28" length="15.26" shape="514.95,511.32 512.36,511.04 508.30,509.22 505.86,506.19 505.05,501.95"/>
    </edge>
    <edge id=":0_27" function="internal">
        <lane id=":0_27_0" index="0" speed="15.28" length="12.51" shape="514.95,511.21 513.81,511.04 510.77,509.22 508.96,506.19 508.35,501.95"/>
    </edge>
    <edge id=":0_12" function="internal">
        <lane id=":0_12_0" index="0" speed="15.28" length="6.42" shape="514.95,501.95 515.14,503.31 515.73,504.27 516.69,504.86 518.05,505.05"/>
        <lane id=":0_12_1" index="1" speed="15.28" length="6.42" shape="514.95,501.95 515.14,504.75 515.73,506.75 516.69,507.95 518.05,508.35"/>
    </edge>
    <edge id=":0_14" function="internal">
        <lane id=":0_14_0" index="0" speed="15.28" length="16.10" shape="514.95,501.95 514.95,506.73 514.95,510.00 514.95,513.27 514.95,518.05"/>
        <lane id=":0_14_1" index="1" speed="15.28" length="16.10" shape="511.65,501.95 511.65,506.73 511.65,510.00 511.65,513.27 511.65,518.05"/>
    </edge>
    <edge id=":0_16" function="internal">
        <lane id=":0_16_0" index="0" speed="15.28" length="3.12" shape="511.65,501.95 511.32,505.05"/>
        <lane id=":0_16_1" index="1" speed="15.28" length="3.12" shape="511.65,501.95 511.21,505.05"/>
    </edge>
    <edge id=":0_28" function="internal">
        <lane id=":0_28_0" index="0" speed="15.28" length="15.26" shape="511.32,505.05 511.04,507.64 509.22,511.70 506.19,514.14 501.95,514.95"/>
    </edge>
    <edge id=":0_29" function="internal">
        <lane id=":0_29_0" index="0" speed="15.28" length="12.51" shape="511.21,505.05 511.04,506.19 509.22,509.23 506.19,511.04 501.95,511.65"/>
    </edge>
    <edge id=":0_18" function="internal">
        <lane id=":0_18_0" index="0" speed="15.28" length="6.42" shape="501.95,505.05 503.31,504.86 504.27,504.28 504.86,503.31 505.05,501.95"/>
        <lane id=":0_18_1" index="1" speed="15.28" length="6.42" shape="501.95,505.05 504.75,504.86 506.75,504.28 507.95,503.31 508.35,501.95"/>
    </edge>
    <edge id=":0_20" function="internal">
        <lane id=":0_20_0" index="0" speed="15.28" length="16.10" shape="501.95,505.05 506.73,505.05 510.00,505.05 513.27,505.05 518.05,505.05"/>
        <lane id=":0_20_1" index="1" speed="15.28" length="16.10" shape="501.95,508.35 506.73,508.35 510.00,508.35 513.27,508.35 518.05,508.35"/>
    </edge>
    <edge id=":0_22" function="internal">
        <lane id=":0_22_0" index="0" speed="15.28" length="3.12" shape="501.95,508.35 505.05,508.68"/>
        <lane id=":0_22_1" index="1" speed="15.28" length="3.12" shape="501.95,508.35 505.05,508.79"/>
    </edge>
    <edge id=":0_30" function="internal">
        <lane id=":0_30_0" index="0" speed="15.28" length="15.26" shape="505.05,508.68 507.64,508.96 511.70,510.78 514.14,513.81 514.95,518.05"/>
    </edge>
    <edge id=":0_31" function="internal">
        <lane id=":0_31_0" index="0" speed="15.28" length="12.51" shape="505.05,508.79 506.19,508.96 509.23,510.78 511.04,513.81 511.65,518.05"/>
    </edge>
    <edge id=":1_0" function="internal">
        <lane id=":1_0_0" index="0" speed="15.28" length="0.10" shape="10.00,514.95 10.00,514.95"/>
        <lane id=":1_0_1" index="1" speed="15.28" length="0.10" shape="10.00,511.65 10.00,511.65"/>
    </edge>
    <edge id=":1_2" function="internal">
        <lane id=":1_2_0" index="0" speed="15.28" length="2.41" shape="10.00,511.65 8.76,510.82 8.35,510.00"/>
    </edge>
    <edge id=":1_6" function="internal">
        <lane id=":1_6_0" index="0" speed="15.28" length="2.41" shape="8.35,510.00 8.76,509.18 10.00,508.35"/>
    </edge>
    <edge id=":1_3" function="internal">
        <lane id=":1_3_0" index="0" speed="15.28" length="0.10" shape="10.00,505.05 10.00,505.05"/>
        <lane id=":1_3_1" index="1" speed="15.28" length="0.10" shape="10.00,508.35 10.00,508.35"/>
    </edge>
    <edge id=":1_5" function="internal">
        <lane id=":1_5_0" index="0" speed="15.28" length="2.41" shape="10.00,508.35 11.24,509.18 11.65,510.00"/>
    </edge>
    <edge id=":1_7" function="internal">
        <lane id=":1_7_0" index="0" speed="15.28" length="2.41" shape="11.65,510.00 11.24,510.82 10.00,511.65"/>
    </edge>
    <edge id=":2_0" function="internal">
        <lane id=":2_0_0" index="0" speed="15.28" length="0.10" shape="1010.00,514.95 1010.00,514.95"/>
        <lane id=":2_0_1" index="1" speed="15.28" length="0.10" shape="1010.00,511.65 1010.00,511.65"/>
    </edge>
    <edge id=":2_2" function="internal">
        <lane id=":2_2_0" index="0" speed="15.28" length="2.41" shape="1010.00,511.65 1008.76,510.82 1008.35,510.00"/>
    </edge>
    <edge id=":2_6" function="internal">
        <lane id=":2_6_0" index="0" speed="15.28" length="2.41" shape="1008.35,510.00 1008.76,509.18 1010.00,508.35"/>
    </edge>
    <edge id=":2_3" function="internal">
        <lane id=":2_3_0" index="0" speed="15.28" length="0.10" shape="1010.00,505.05 1010.00,505.05"/>
        <lane id=":2_3_1" index="1" speed="15.28" length="0.10" shape="1010.00,508.35 1010.00,508.35"/>
    </edge>
    <edge id=":2_5" function="internal">
        <lane id=":2_5_0" index="0" speed="15.28" length="2.41" shape="1010.00,508.35 1011.24,509.18 1011.65,510.00"/>
    </edge>
    <edge id=":2_7" function="internal">
        <lane id=":2_7_0" index="0" speed="15.28" length="2.41" shape="1011.65,510.00 1011.24,510.82 1010.00,511.65"/>
    </edge>
    <edge id=":3_0" function="internal">
        <lane id=":3_0_0" index="0" speed="15.28" length="0.10" shape="505.05,10.00 505.05,10.00"/>
        <lane id=":3_0_1" index="1" speed="15.28" length="0.10" shape="508.35,10.00 508.35,10.00"/>
    </edge>
    <edge id=":3_2" function="internal">
        <lane id=":3_2_0" index="0" speed="15.28" length="2.41" shape="508.35,10.00 509.18,8.76 510.00,8.35"/>
    </edge>
    <edge id=":3_6" function="internal">
        <lane id=":3_6_0" index="0" speed="15.28" length="2.41" shape="510.00,8.35 510.82,8.76 511.65,10.00"/>
    </edge>
    <edge id=":3_3" function="internal">
        <lane id=":3_3_0" index="0" speed="15.28" length="0.10" shape="514.95,10.00 514.95,10.00"/>
        <lane id=":3_3_1" index="1" speed="15.28" length="0.10" shape="511.65,10.00 511.65,10.00"/>
    </edge>
    <edge id=":3_5" function="internal">
        <lane id=":3_5_0" index="0" speed="15.28" length="2.41" shape="511.65,10.00 510.82,11.24 510.00,11.65"/>
    </edge>
    <edge id=":3_7" function="internal">
        <lane id=":3_7_0" index="0" speed="15.28" length="2.41" shape="510.00,11.65 509.18,11.24 508.35,10.00"/>
    </edge>
    <edge id=":4_0" function="internal">
        <lane id=":4_0_0" index="0" speed="15.28" length="0.10" shape="505.05,1010.00 505.05,1010.00"/>
        <lane id=":4_0_1" index="1" speed="15.28" length="0.10" shape="508.35,1010.00 508.35,1010.00"/>
    </edge>
    <edge id=":4_2" function="internal">
        <lane id=":4_2_0" index="0" speed="15.28" length="2.41" shape="508.35,1010.00 509.18,1008.76 510.00,1008.35"/>
    </edge>
    <edge id=":4_6" function="internal">
        <lane id=":4_6_0" index="0" speed="15.28" length="2.41" shape="510.00,1008.35 510.82,1008.76 511.65,1010.00"/>
    </edge>
    <edge id=":4_3" function="internal">
        <lane id=":4_3_0" index="0" speed="15.28" length="0.10" shape="514.95,1010.00 514.95,1010.00"/>
        <lane id=":4_3_1" index="1" speed="15.28" length="0.10" shape="511.65,1010.00 511.65,1010.00"/>
    </edge>
    <edge id=":4_5" function="internal">
        <lane id=":4_5_0" index="0" speed="15.28" length="2.41" shape="511.65,1010.00 510.82,1011.24 510.00,1011.65"/>
    </edge>
    <edge id=":4_7" function="internal">
        <lane id=":4_7_0" index="0" speed="15.28" length="2.41" shape="510.00,1011.65 509.18,1011.24 508.35,1010.00"/>
    </edge>
    <edge id=":51_0" function="internal">
        <lane id=":51_0_0" index="0" speed="15.28" length="4.82" shape="0.00,511.65 -1.24,510.82 -1.65,510.00 -1.24,509.18 0.00,508.35"/>
    </edge>
    <edge id=":52_0" function="internal">
        <lane id=":52_0_0" index="0" speed="15.28" length="4.82" shape="1020.00,508.35 1021.24,509.18 1021.65,510.00 1021.24,510.82 1020.00,511.65"/>
    </edge>
    <edge id=":53_0" function="internal">
        <lane id=":53_0_0" index="0" speed="15.28" length="4.82" shape="508.35,0.00 509.18,-1.24 510.00,-1.65 510.82,-1.24 511.65,0.00"/>
    </edge>
    <edge id=":54_0" function="internal">
        <lane id=":54_0_0" index="0" speed="15.28" length="4.82" shape="511.65,1020.00 510.82,1021.24 510.00,1021.65 509.18,1021.24 508.35,1020.00"/>
    </edge>

    <edge id="1i" from="1" to="0" priority="78">
        <lane id="1i_0" index="0" speed="19.44" length="491.95" shape="10.00,505.05 501.95,505.05"/>
        <lane id="1i_1" index="1" speed="19.44" length="491.95" shape="10.00,508.35 501.95,508.35"/>
    </edge>
    <edge id="1o" from="0" to="1" priority="46">
        <lane id="1o_0" index="0" speed="11.11" length="491.95" shape="501.95,514.95 10.00,514.95"/>
        <lane id="1o_1" index="1" speed="11.11" length="491.95" shape="501.95,511.65 10.00,511.65"/>
    </edge>
    <edge id="2i" from="2" to="0" priority="78">
        <lane id="2i_0" index="0" speed="19.44" length="491.95" shape="1010.00,514.95 518.05,514.95"/>
        <lane id="2i_1" index="1" speed="19.44" length="491.95" shape="1010.00,511.65 518.05,511.65"/>
    </edge>
    <edge id="2o" from="0" to="2" priority="46">
        <lane id="2o_0" index="0" speed="11.11" length="491.95" shape="518.05,505.05 1010.00,505.05"/>
        <lane id="2o_1" index="1" speed="11.11" length="491.95" shape="518.05,508.35 1010.00,508.35"/>
    </edge>
    <edge id="3i" from="3" to="0" priority="78">
        <lane id="3i_0" index="0" speed="19.44" length="491.95" shape="514.95,10.00 514.95,501.95"/>
        <lane id="3i_1" index="1" speed="19.44" length="491.95" shape="511.65,10.00 511.65,501.95"/>
    </edge>
    <edge id="3o" from="0" to="3" priority="46">
        <lane id="3o_0" index="0" speed="11.11" length="491.95" shape="505.05,501.95 505.05,10.00"/>
        <lane id="3o_1" index="1" speed="11.11" length="491.95" shape="508.35,501.95 508.35,10.00"/>
    </edge>
    <edge id="4i" from="4" to="0" priority="78">
        <lane id="4i_0" index="0" speed="19.44" length="491.95" shape="505.05,1010.00 505.05,518.05"/>
        <lane id="4i_1" index="1" speed="19.44" length="491.95" shape="508.35,1010.00 508.35,518.05"/>
    </edge>
    <edge id="4o" from="0" to="4" priority="46">
        <lane id="4o_0" index="0" speed="11.11" length="491.95" shape="514.95,518.05 514.95,1010.00"/>
        <lane id="4o_1" index="1" speed="11.11" length="491.95" shape="511.65,518.05 511.65,1010.00"/>
    </edge>
    <edge id="51i" from="1" to="51" priority="78">
        <lane id="51i_0" index="0" speed="19.44" length="10.00" shape="10.00,514.95 0.00,514.95"/>
        <lane id="51i_1" index="1" speed="19.44" length="10.00" shape="10.00,511.65 0.00,511.65"/>
    </edge>
    <edge id="51o" from="51" to="1" priority="46">
        <lane id="51o_0" index="0" speed="11.11" length="10.00" shape="0.00,505.05 10.00,505.05"/>
        <lane id="51o_1" index="1" speed="11.11" length="10.00" shape="0.00,508.35 10.00,508.35"/>
    </edge>
    <edge id="52i" from="2" to="52" priority="78">
        <lane id="52i_0" index="0" speed="19.44" length="10.00" shape="1010.00,505.05 1020.00,505.05"/>
        <lane id="52i_1" index="1" speed="19.44" length="10.00" shape="1010.00,508.35 1020.00,508.35"/>
    </edge>
    <edge id="52o" from="52" to="2" priority="46">
        <lane id="52o_0" index="0" speed="11.11" length="10.00" shape="1020.00,514.95 1010.00,514.95"/>
        <lane id="52o_1" index="1" speed="11.11" length="10.00" shape="1020.00,511.65 1010.00,511.65"/>
    </edge>
    <edge id="53i" from="3" to="53" priority="78">
        <lane id="53i_0" index="0" speed="19.44" length="10.00" shape="505.05,10.00 505.05,0.00"/>
        <lane id="53i_1" index="1" speed="19.44" length="10.00" shape="508.35,10.00 508.35,0.00"/>
    </edge>
    <edge id="53o" from="53" to="3" priority="46">
        <lane id="53o_0" index="0" speed="11.11" length="10.00" shape="514.95,0.00 514.95,10.00"/>
        <lane id="53o_1" index="1" speed="11.11" length="10.00" shape="511.65,0.00 511.65,10.00"/>
    </edge>
    <edge id="54i" from="4" to="54" priority="78">
        <lane id="54i_0" index="0" speed="19.44" length="10.00" shape="514.95,1010.00 514.95,1020.00"/>
        <lane id="54i_1" index="1" speed="19.44" length="10.00" shape="511.65,1010.00 511.65,1020.00"/>
    </edge>
    <edge id="54o" from="54" to="4" priority="46">
        <lane id="54o_0" index="0" speed="11.11" length="10.00" shape="505.05,1020.00 505.05,1010.00"/>
        <lane id="54o_1" index="1" speed="11.11" length="10.00" shape="508.35,1020.00 508.35,1010.00"/>
    </edge>

    <tlLogic id="0" type="static" programID="0" offset="0">
        <phase duration="31" state="GGGGggrrrrrrGGGGggrrrrrr"/>
        <phase duration="6" state="yyyyggrrrrrryyyyggrrrrrr"/>
        <phase duration="6" state="rrrrGGrrrrrrrrrrGGrrrrrr"/>
        <phase duration="6" state="rrrryyrrrrrrrrrryyrrrrrr"/>
        <phase duration="31" state="rrrrrrGGGGggrrrrrrGGGGgg"/>
        <phase duration="6" state="rrrrrryyyyggrrrrrryyyygg"/>
        <phase duration="6" state="rrrrrrrrrrGGrrrrrrrrrrGG"/>
        <phase duration="6" state="rrrrrrrrrryyrrrrrrrrrryy"/>
    </tlLogic>

    <junction id="0" type="traffic_light" x="510.00" y="510.00" incLanes="4i_0 4i_1 2i_0 2i_1 3i_0 3i_1 1i_0 1i_1" intLanes=":0_0_0 :0_0_1 :0_2_0 :0_2_1 :0_24_0 :0_25_0 :0_6_0 :0_6_1 :0_8_0 :0_8_1 :0_26_0 :0_27_0 :0_12_0 :0_12_1 :0_14_0 :0_14_1 :0_28_0 :0_29_0 :0_18_0 :0_18_1 :0_20_0 :0_20_1 :0_30_0 :0_31_0" shape="503.45,518.05 516.55,518.05 518.05,516.55 518.05,503.45 516.55,501.95 503.45,501.95 501.95,503.45 501.95,516.55">
        <request index="0" response="000000000000000000000000" foes="000000110000001100000000" cont="0"/>
        <request index="1" response="000000000000000000000000" foes="000000110000001100000000" cont="0"/>
        <request index="2" response="000000000000000000000000" foes="111111110000111100000000" cont="0"/>
        <request index="3" response="000000000000000000000000" foes="111111110000111100000000" cont="0"/>
        <request index="4" response="000000001111000000000000" foes="111100001111111100000000" cont="1"/>
        <request index="5" response="000000001111000000000000" foes="111100001111111100000000" cont="1"/>
        <request index="6" response="000000001100000000000000" foes="110000001100000000000000" cont="0"/>
        <request index="7" response="000000001100000000000000" foes="110000001100000000000000" cont="0"/>
        <request index="8" response="000000111100000000111111" foes="110000111100000000111111" cont="0"/>
        <request index="9" response="000000111100000000111111" foes="110000111100000000111111" cont="0"/>
        <request index="10" response="001111111100000000111100" foes="001111111100000000111100" cont="1"/>
        <request index="11" response="001111111100000000111100" foes="001111111100000000111100" cont="1"/>
        <request index="12" response="000000000000000000000000" foes="001100000000000000110000" cont="0"/>
        <request index="13" response="000000000000000000000000" foes="001100000000000000110000" cont="0"/>
        <request index="14" response="000000000000000000000000" foes="111100000000111111110000" cont="0"/>
        <request index="15" response="000000000000000000000000" foes="111100000000111111110000" cont="0"/>
        <request index="16" response="000000000000000000001111" foes="111100000000111100001111" cont="1"/>
        <request index="17" response="000000000000000000001111" foes="111100000000111100001111" cont="1"/>
        <request index="18" response="000000000000000000001100" foes="000000000000110000001100" cont="0"/>
        <request index="19" response="000000000000000000001100" foes="000000000000110000001100" cont="0"/>
        <request index="20" response="000000111111000000111100" foes="000000111111110000111100" cont="0"/>
        <request index="21" response="000000111111000000111100" foes="000000111111110000111100" cont="0"/>
        <request index="22" response="000000111100001111111100" foes="000000111100001111111100" cont="1"/>
        <request index="23" response="000000111100001111111100" foes="000000111100001111111100" cont="1"/>
    </junction>
    <junction id="1" type="priority" x="10.00" y="510.00" incLanes="1o_0 1o_1 51o_0 51o_1" intLanes=":1_0_0 :1_0_1 :1_6_0 :1_3_0 :1_3_1 :1_7_0" shape="10.00,516.55 10.00,503.45 10.00,516.55">
        <request index="0" response="000000" foes="100000" cont="0"/>
        <request index="1" response="000000" foes="100000" cont="0"/>
        <request index="2" response="011000" foes="011000" cont="1"/>
        <request index="3" response="000000" foes="000100" cont="0"/>
        <request index="4" response="000000" foes="000100" cont="0"/>
        <request index="5" response="000011" foes="000011" cont="1"/>
    </junction>
    <junction id="2" type="priority" x="1010.00" y="510.00" incLanes="52o_0 52o_1 2o_0 2o_1" intLanes=":2_0_0 :2_0_1 :2_6_0 :2_3_0 :2_3_1 :2_7_0" shape="1010.00,516.55 1010.00,503.45 1010.00,516.55">
        <request index="0" response="000000" foes="100000" cont="0"/>
        <request index="1" response="000000" foes="100000" cont="0"/>
        <request index="2" response="011000" foes="011000" cont="1"/>
        <request index="3" response="000000" foes="000100" cont="0"/>
        <request index="4" response="000000" foes="000100" cont="0"/>
        <request index="5" response="000011" foes="000011" cont="1"/>
    </junction>
    <junction id="3" type="priority" x="510.00" y="10.00" incLanes="3o_0 3o_1 53o_0 53o_1" intLanes=":3_0_0 :3_0_1 :3_6_0 :3_3_0 :3_3_1 :3_7_0" shape="503.45,10.00 516.55,10.00 503.45,10.00">
        <request index="0" response="000000" foes="100000" cont="0"/>
        <request index="1" response="000000" foes="100000" cont="0"/>
        <request index="2" response="011000" foes="011000" cont="1"/>
        <request index="3" response="000000" foes="000100" cont="0"/>
        <request index="4" response="000000" foes="000100" cont="0"/>
        <request index="5" response="000011" foes="000011" cont="1"/>
    </junction>
    <junction id="4" type="priority" x="510.00" y="1010.00" incLanes="54o_0 54o_1 4o_0 4o_1" intLanes=":4_0_0 :4_0_1 :4_6_0 :4_3_0 :4_3_1 :4_7_0" shape="503.45,1010.00 516.55,1010.00 503.45,1010.00">
        <request index="0" response="000000" foes="100000" cont="0"/>
        <request index="1" response="000000" foes="100000" cont="0"/>
        <request index="2" response="011000" foes="011000" cont="1"/>
        <request index="3" response="000000" foes="000100" cont="0"/>
        <request index="4" response="000000" foes="000100" cont="0"/>
        <request index="5" response="000011" foes="000011" cont="1"/>
    </junction>
    <junction id="51" type="priority" x="0.00" y="510.00" incLanes="51i_0 51i_1" intLanes=":51_0_0" shape="-0.00,509.95 -0.00,503.45 0.00,516.55 0.00,510.05">
        <request index="0" response="0" foes="0" cont="0"/>
    </junction>
    <junction id="52" type="priority" x="1020.00" y="510.00" incLanes="52i_0 52i_1" intLanes=":52_0_0" shape="1020.00,510.05 1020.00,516.55 1020.00,503.45 1020.00,509.95">
        <request index="0" response="0" foes="0" cont="0"/>
    </junction>
    <junction id="53" type="priority" x="510.00" y="0.00" incLanes="53i_0 53i_1" intLanes=":53_0_0" shape="510.05,-0.00 516.55,-0.00 503.45,0.00 509.95,0.00">
        <request index="0" response="0" foes="0" cont="0"/>
    </junction>
    <junction id="54" type="priority" x="510.00" y="1020.00" incLanes="54i_0 54i_1" intLanes=":54_0_0" shape="509.95,1020.00 503.45,1020.00 516.55,1020.00 510.05,1020.00">
        <request index="0" response="0" foes="0" cont="0"/>
    </junction>

    <junction id=":0_24_0" type="internal" x="508.68" y="514.95" incLanes=":0_4_0 3i_0 3i_1" intLanes=":0_8_0 :0_8_1 :0_10_0 :0_10_1 :0_12_0 :0_12_1 :0_14_0 :0_14_1 :0_20_0 :0_20_1 :0_22_0 :0_22_1"/>
    <junction id=":0_25_0" type="internal" x="508.79" y="514.95" incLanes=":0_4_1 3i_0 3i_1" intLanes=":0_8_0 :0_8_1 :0_10_0 :0_10_1 :0_12_0 :0_12_1 :0_14_0 :0_14_1 :0_20_0 :0_20_1 :0_22_0 :0_22_1"/>
    <junction id=":0_26_0" type="internal" x="514.95" y="511.32" incLanes=":0_10_0 1i_0 1i_1 3i_0 3i_1 4i_0 4i_1" intLanes=":0_2_0 :0_2_1 :0_4_0 :0_4_1 :0_14_0 :0_14_1 :0_16_0 :0_16_1 :0_18_0 :0_18_1 :0_20_0 :0_20_1"/>
    <junction id=":0_27_0" type="internal" x="514.95" y="511.21" incLanes=":0_10_1 1i_0 1i_1 3i_0 3i_1 4i_0 4i_1" intLanes=":0_2_0 :0_2_1 :0_4_0 :0_4_1 :0_14_0 :0_14_1 :0_16_0 :0_16_1 :0_18_0 :0_18_1 :0_20_0 :0_20_1"/>
    <junction id=":0_28_0" type="internal" x="511.32" y="505.05" incLanes=":0_16_0 4i_0 4i_1" intLanes=":0_0_0 :0_0_1 :0_2_0 :0_2_1 :0_8_0 :0_8_1 :0_10_0 :0_10_1 :0_20_0 :0_20_1 :0_22_0 :0_22_1"/>
    <junction id=":0_29_0" type="internal" x="511.21" y="505.05" incLanes=":0_16_1 4i_0 4i_1" intLanes=":0_0_0 :0_0_1 :0_2_0 :0_2_1 :0_8_0 :0_8_1 :0_10_0 :0_10_1 :0_20_0 :0_20_1 :0_22_0 :0_22_1"/>
    <junction id=":0_30_0" type="internal" x="505.05" y="508.68" incLanes=":0_22_0 2i_0 2i_1 3i_0 3i_1 4i_0 4i_1" intLanes=":0_2_0 :0_2_1 :0_4_0 :0_4_1 :0_6_0 :0_6_1 :0_8_0 :0_8_1 :0_14_0 :0_14_1 :0_16_0 :0_16_1"/>
    <junction id=":0_31_0" type="internal" x="505.05" y="508.79" incLanes=":0_22_1 2i_0 2i_1 3i_0 3i_1 4i_0 4i_1" intLanes=":0_2_0 :0_2_1 :0_4_0 :0_4_1 :0_6_0 :0_6_1 :0_8_0 :0_8_1 :0_14_0 :0_14_1 :0_16_0 :0_16_1"/>
    <junction id=":1_6_0" type="internal" x="8.35" y="510.00" incLanes=":1_2_0 51o_0 51o_1" intLanes=":1_3_0 :1_3_1"/>
    <junction id=":1_7_0" type="internal" x="11.65" y="510.00" incLanes=":1_5_0 1o_0 1o_1" intLanes=":1_0_0 :1_0_1"/>
    <junction id=":2_6_0" type="internal" x="1008.35" y="510.00" incLanes=":2_2_0 2o_0 2o_1" intLanes=":2_3_0 :2_3_1"/>
    <junction id=":2_7_0" type="internal" x="1011.65" y="510.00" incLanes=":2_5_0 52o_0 52o_1" intLanes=":2_0_0 :2_0_1"/>
    <junction id=":3_6_0" type="internal" x="510.00" y="8.35" incLanes=":3_2_0 53o_0 53o_1" intLanes=":3_3_0 :3_3_1"/>
    <junction id=":3_7_0" type="internal" x="510.00" y="11.65" incLanes=":3_5_0 3o_0 3o_1" intLanes=":3_0_0 :3_0_1"/>
    <junction id=":4_6_0" type="internal" x="510.00" y="1008.35" incLanes=":4_2_0 4o_0 4o_1" intLanes=":4_3_0 :4_3_1"/>
    <junction id=":4_7_0" type="internal" x="510.00" y="1011.65" incLanes=":4_5_0 54o_0 54o_1" intLanes=":4_0_0 :4_0_1"/>

    <connection from="1i" to="3o" fromLane="0" toLane="0" via=":0_18_0" tl="0" linkIndex="18" dir="r" state="o"/>
    <connection from="1i" to="3o" fromLane="0" toLane="1" via=":0_18_1" tl="0" linkIndex="19" dir="r" state="o"/>
    <connection from="1i" to="2o" fromLane="0" toLane="0" via=":0_20_0" tl="0" linkIndex="20" dir="s" state="o"/>
    <connection from="1i" to="2o" fromLane="1" toLane="1" via=":0_20_1" tl="0" linkIndex="21" dir="s" state="o"/>
    <connection from="1i" to="4o" fromLane="1" toLane="0" via=":0_22_0" tl="0" linkIndex="22" dir="l" state="o"/>
    <connection from="1i" to="4o" fromLane="1" toLane="1" via=":0_22_1" tl="0" linkIndex="23" dir="l" state="o"/>
    <connection from="1o" to="51i" fromLane="0" toLane="0" via=":1_0_0" dir="s" state="M"/>
    <connection from="1o" to="51i" fromLane="1" toLane="1" via=":1_0_1" dir="s" state="M"/>
    <connection from="1o" to="1i" fromLane="1" toLane="1" via=":1_2_0" dir="t" state="m"/>
    <connection from="2i" to="4o" fromLane="0" toLane="0" via=":0_6_0" tl="0" linkIndex="6" dir="r" state="o"/>
    <connection from="2i" to="4o" fromLane="0" toLane="1" via=":0_6_1" tl="0" linkIndex="7" dir="r" state="o"/>
    <connection from="2i" to="1o" fromLane="0" toLane="0" via=":0_8_0" tl="0" linkIndex="8" dir="s" state="o"/>
    <connection from="2i" to="1o" fromLane="1" toLane="1" via=":0_8_1" tl="0" linkIndex="9" dir="s" state="o"/>
    <connection from="2i" to="3o" fromLane="1" toLane="0" via=":0_10_0" tl="0" linkIndex="10" dir="l" state="o"/>
    <connection from="2i" to="3o" fromLane="1" toLane="1" via=":0_10_1" tl="0" linkIndex="11" dir="l" state="o"/>
    <connection from="2o" to="52i" fromLane="0" toLane="0" via=":2_3_0" dir="s" state="M"/>
    <connection from="2o" to="52i" fromLane="1" toLane="1" via=":2_3_1" dir="s" state="M"/>
    <connection from="2o" to="2i" fromLane="1" toLane="1" via=":2_5_0" dir="t" state="m"/>
    <connection from="3i" to="2o" fromLane="0" toLane="0" via=":0_12_0" tl="0" linkIndex="12" dir="r" state="o"/>
    <connection from="3i" to="2o" fromLane="0" toLane="1" via=":0_12_1" tl="0" linkIndex="13" dir="r" state="o"/>
    <connection from="3i" to="4o" fromLane="0" toLane="0" via=":0_14_0" tl="0" linkIndex="14" dir="s" state="o"/>
    <connection from="3i" to="4o" fromLane="1" toLane="1" via=":0_14_1" tl="0" linkIndex="15" dir="s" state="o"/>
    <connection from="3i" to="1o" fromLane="1" toLane="0" via=":0_16_0" tl="0" linkIndex="16" dir="l" state="o"/>
    <connection from="3i" to="1o" fromLane="1" toLane="1" via=":0_16_1" tl="0" linkIndex="17" dir="l" state="o"/>
    <connection from="3o" to="53i" fromLane="0" toLane="0" via=":3_0_0" dir="s" state="M"/>
    <connection from="3o" to="53i" fromLane="1" toLane="1" via=":3_0_1" dir="s" state="M"/>
    <connection from="3o" to="3i" fromLane="1" toLane="1" via=":3_2_0" dir="t" state="m"/>
    <connection from="4i" to="1o" fromLane="0" toLane="0" via=":0_0_0" tl="0" linkIndex="0" dir="r" state="o"/>
    <connection from="4i" to="1o" fromLane="0" toLane="1" via=":0_0_1" tl="0" linkIndex="1" dir="r" state="o"/>
    <connection from="4i" to="3o" fromLane="0" toLane="0" via=":0_2_0" tl="0" linkIndex="2" dir="s" state="o"/>
    <connection from="4i" to="3o" fromLane="1" toLane="1" via=":0_2_1" tl="0" linkIndex="3" dir="s" state="o"/>
    <connection from="4i" to="2o" fromLane="1" toLane="0" via=":0_4_0" tl="0" linkIndex="4" dir="l" state="o"/>
    <connection from="4i" to="2o" fromLane="1" toLane="1" via=":0_4_1" tl="0" linkIndex="5" dir="l" state="o"/>
    <connection from="4o" to="54i" fromLane="0" toLane="0" via=":4_3_0" dir="s" state="M"/>
    <connection from="4o" to="54i" fromLane="1" toLane="1" via=":4_3_1" dir="s" state="M"/>
    <connection from="4o" to="4i" fromLane="1" toLane="1" via=":4_5_0" dir="t" state="m"/>
    <connection from="51i" to="51o" fromLane="1" toLane="1" via=":51_0_0" dir="t" state="M"/>
    <connection from="51o" to="1i" fromLane="0" toLane="0" via=":1_3_0" dir="s" state="M"/>
    <connection from="51o" to="1i" fromLane="1" toLane="1" via=":1_3_1" dir="s" state="M"/>
    <connection from="51o" to="51i" fromLane="1" toLane="1" via=":1_5_0" dir="t" state="m"/>